Output_case2_3p/output_current_566.csv
# Output_case2_3p\output_current_566.csv run at 2000-01-01 09:26:00 EST on 907 links
link_name,currA_mag,currA_angle,currB_mag,currB_angle,currC_mag,currC_angle
Source_Impedance,13.671021,-0.353778,11.377535,3.784598,12.141831,1.882094
TR1,13.671021,-0.353778,11.377535,3.784598,12.141831,1.882094
LINE1,378.497438,-0.838759,340.552925,3.332485,261.249680,1.248880
LINE2,378.497438,-0.838759,340.552925,3.332485,261.249680,1.248880
LINE3,378.497438,-0.838759,340.552925,3.332485,261.249680,1.248880
LINE4,378.497438,-0.838759,340.552925,3.332485,261.249680,1.248880
LINE5,378.497438,-0.838759,340.552925,3.332485,261.249680,1.248880
LINE6,378.497438,-0.838759,340.552925,3.332485,261.249680,1.248880
LINE7,378.497438,-0.838759,340.552925,3.332485,261.249680,1.248880
LINE8,378.497438,-0.838759,340.552925,3.332485,261.249680,1.248880
LINE9,378.497438,-0.838759,340.552925,3.332485,261.249680,1.248880
LINE10,378.497438,-0.838759,340.552925,3.332485,261.249680,1.248880
LINE11,378.497438,-0.838759,340.552925,3.332485,261.249680,1.248880
LINE12,378.497438,-0.838759,340.552925,3.332485,261.249680,1.248880
LINE13,378.497438,-0.838759,340.552925,3.332485,261.249680,1.248880
LINE14,378.497438,-0.838759,340.552925,3.332485,261.249680,1.248880
LINE15,0.000000,3.045353,0.000000,-0.743762,0.000000,1.572847
LINE16,378.497438,-0.838759,340.552925,3.332485,261.249680,1.248880
LINE17,0.000000,3.116661,0.000000,-0.024932,0.000000,1.582307
LINE18,378.497438,-0.838759,340.552925,3.332485,261.249680,1.248880
LINE19,0.000000,3.054242,0.000000,0.058209,0.000000,1.592705
LINE20,378.497438,-0.838759,340.552925,3.332485,261.249680,1.248880
LINE21,0.000000,2.736154,0.000000,0.220047,0.000000,1.577104
LINE22,378.497438,-0.838759,340.552925,3.332485,261.249680,1.248880
LINE23,0.000000,2.653013,0.000000,0.220047,0.000000,1.577104
LINE24,378.497438,-0.838759,340.552925,3.332485,261.249680,1.248880
LINE25,0.000000,3.116661,0.000000,-0.668433,0.000000,1.577104
LINE26,34.241997,-0.851861,0.000000,3.358274,0.000000,1.290346
LINE27,344.258671,-0.837456,340.552925,3.332485,261.249680,1.248880
LINE28,0.000000,3.580308,0.000000,-0.488580,0.000000,1.571900
LINE29,17.120053,-0.851874,0.000000,3.452150,0.000000,1.617873
LINE30,17.121944,-0.851847,0.000000,3.333957,0.000000,1.263551
LINE31,344.258671,-0.837456,340.552925,3.332485,261.249680,1.248880
LINE32,0.000000,-0.810330,0.000000,-0.668433,0.000000,1.572644
LINE33,17.120053,-0.851874,0.000000,2.928245,0.000000,2.559400
LINE34,17.121944,-0.851847,0.000000,2.993432,0.000000,0.322745
LINE35,0.000000,-0.918383,34.489938,3.333816,0.000000,1.898532
LINE36,344.258671,-0.837456,306.063021,3.332334,261.249680,1.248880
LINE37,0.000000,-1.007726,0.000000,-0.405438,0.000000,1.573502
LINE38,17.121944,-0.851847,0.000000,3.738577,0.000000,1.485221
LINE39,0.000000,-0.889877,17.245171,3.333819,0.000000,1.734979
LINE40,0.000000,2.846957,17.244767,3.333814,0.000000,-1.537059
LINE41,344.258671,-0.837456,306.063021,3.332334,261.249680,1.248880
LINE42,0.000000,1.056800,0.000000,-0.845778,0.000000,-1.417106
LINE43,0.000000,-0.810330,0.000000,-0.810330,0.000000,1.565393
LINE44,17.121944,-0.851847,0.000000,3.693273,0.000000,-1.463863
LINE45,0.000000,-0.951202,17.245171,3.333819,0.000000,1.701125
LINE46,0.000000,3.525411,17.244767,3.333814,0.000000,1.553620
LINE47,344.258671,-0.837456,306.063021,3.332334,261.249680,1.248880
LINE48,0.000000,1.087312,0.000000,-0.407814,0.000000,-1.394313
LINE49,0.000000,-0.668433,0.000000,-0.810330,0.000000,1.561488
LINE50,17.121944,-0.851847,0.000000,4.069570,0.000000,-1.472174
LINE51,0.000000,3.411410,17.245171,3.333819,0.000000,4.569938
LINE52,344.258671,-0.837456,306.063021,3.332334,261.249680,1.248880
LINE53,0.000000,1.589977,0.000000,-0.727558,0.000000,1.776044
LINE54,0.000000,1.041596,0.000000,-0.270239,0.000000,4.081782
LINE55,0.000000,-0.269911,0.000000,-0.488580,0.000000,1.577104
LINE56,17.121944,-0.851847,0.000000,-1.215755,0.000000,4.695875
LINE57,0.000000,3.706707,17.245171,3.333819,0.000000,4.614601
LINE58,344.258671,-0.837456,306.063021,3.332334,261.249680,1.248880
LINE59,0.000000,1.675718,0.000000,-0.162562,0.000000,1.710695
LINE60,0.000000,0.910467,0.000000,-0.243074,0.000000,1.041861
LINE61,0.000000,-0.383703,0.000000,-0.668433,0.000000,1.553677
LINE62,17.121944,-0.851847,0.000000,-0.429994,0.000000,-1.407234
LINE63,0.000000,2.655538,17.245171,3.333819,0.000000,4.541817
LINE64,309.208926,-0.836518,306.063021,3.332334,261.249680,1.248880
LINE65,35.051083,-0.845738,0.000000,3.697741,0.000000,-1.524867
LINE66,0.000000,2.037821,0.000000,0.524692,0.000000,2.809786
LINE67,0.000000,0.969797,0.000000,-0.336087,0.000000,-0.705209
LINE68,0.000000,-0.149287,0.000000,-1.215222,0.000000,1.558364
LINE69,17.121944,-0.851847,0.000000,3.543919,0.000000,-1.523620
LINE70,0.000000,3.007673,17.245171,3.333819,0.000000,1.829823
LINE71,309.208926,-0.836518,306.063021,3.332334,261.249680,1.248880
LINE72,17.525542,-0.845738,0.000000,3.383746,0.000000,-1.543680
LINE73,17.525542,-0.845738,0.000000,3.383622,0.000000,-1.512881
LINE74,0.000000,2.012367,0.000000,2.936977,0.000000,1.729440
LINE75,0.000000,1.191522,0.000000,-0.254214,0.000000,-0.375279
LINE76,0.000000,-0.162938,0.000000,-1.350750,0.000000,1.567001
LINE77,0.000000,4.005996,17.245171,3.333819,0.000000,-1.523461
LINE78,309.208926,-0.836518,306.063021,3.332334,261.249680,1.248880
LINE79,0.000000,2.081028,0.000000,4.172574,0.000000,2.570054
LINE80,0.000000,1.112344,0.000000,-0.242562,0.000000,-0.829437
LINE81,0.000000,-0.269911,0.000000,-1.496060,0.000000,1.564742
LINE82,0.000000,2.785398,17.245171,3.333819,0.000000,4.655626
LINE83,309.208926,-0.836518,306.063021,3.332334,261.249680,1.248880
LINE84,0.000000,1.937134,0.000000,0.716800,0.000000,4.342407
LINE85,0.000000,1.122896,0.000000,-0.222601,0.000000,-1.183040
LINE86,0.000000,-0.346682,0.000000,4.554906,0.000000,1.564417
LINE87,309.208926,-0.836518,306.063021,3.332334,261.249680,1.248880
LINE88,0.000000,1.412928,0.000000,4.554521,0.000000,0.000000
LINE89,0.000000,1.154076,0.000000,-0.237198,0.000000,-1.286890
LINE90,0.000000,-0.405438,0.000000,4.306951,0.000000,1.552561
LINE91,309.208926,-0.836518,306.063021,3.332334,261.249680,1.248880
LINE92,0.000000,1.447664,0.000000,-0.023161,0.000000,1.076288
LINE93,0.000000,4.687457,0.000000,0.000000,0.000000,0.000000
LINE94,309.208926,-0.836518,306.063021,3.332334,261.249680,1.248880
LINE95,0.000000,1.445697,0.000000,-0.234407,0.000000,4.619136
LINE96,0.000000,3.116661,0.000000,0.438716,0.000000,1.569298
LINE97,309.208926,-0.836518,306.063021,3.332334,261.249680,1.248880
LINE98,0.000000,1.937762,0.000000,-1.446443,0.000000,4.657871
LINE99,0.000000,1.545864,0.000000,-0.024932,0.000000,-1.533309
LINE100,309.208926,-0.836518,306.063021,3.332334,261.249680,1.248880
LINE101,0.000000,2.138026,0.000000,-1.412280,0.000000,4.253180
LINE102,0.000000,0.000000,0.000000,0.000000,0.000000,0.000000
LINE103,17.663670,-0.843783,52.913158,3.334552,34.542665,1.247307
LINE104,291.545751,-0.836077,253.150020,3.331871,226.707064,1.249120
LINE105,0.000000,2.036865,0.000000,-1.444742,0.000000,4.275923
LINE106,17.663670,-0.843783,52.913158,3.334552,34.542665,1.247307
LINE107,291.545751,-0.836077,253.150020,3.331871,226.707064,1.249120
LINE108,0.000000,2.007808,0.000000,-1.108265,0.000000,4.347762
LINE109,17.663670,-0.843783,52.913158,3.334552,34.542665,1.247307
LINE110,291.545751,-0.836077,253.150020,3.331871,226.707064,1.249120
LINE111,0.000000,2.015331,0.000000,-1.109593,0.000000,4.314801
LINE112,17.663670,-0.843783,52.913158,3.334552,34.542665,1.247307
LINE113,291.545751,-0.836077,253.150020,3.331871,226.707064,1.249120
LINE114,0.000000,2.017851,0.000000,-1.104506,0.000000,4.311360
LINE115,17.663670,-0.843783,52.913158,3.334552,34.542665,1.247307
LINE116,17.751249,-0.842759,35.406672,3.334754,34.642773,1.248050
LINE117,273.794924,-0.835644,217.743520,3.331402,192.064314,1.249313
LINE118,0.000000,1.989763,0.000000,-1.152197,0.000000,4.299025
LINE119,17.663670,-0.843783,52.913158,3.334552,34.542665,1.247307
LINE120,0.000000,2.331263,0.000000,0.837238,0.000000,4.683906
LINE121,17.751249,-0.842759,35.406672,3.334754,34.642773,1.248050
LINE122,273.794924,-0.835644,217.743520,3.331402,192.064314,1.249313
LINE123,0.000000,2.017363,0.000000,-1.092362,0.000000,4.360044
LINE124,17.663670,-0.843783,52.913158,3.334552,34.542665,1.247307
LINE125,0.000000,2.045211,0.000000,0.760466,0.000000,4.694618
LINE126,17.751249,-0.842759,35.406672,3.334754,34.642773,1.248050
LINE127,273.794924,-0.835644,217.743520,3.331402,192.064314,1.249313
LINE128,0.000000,2.001935,0.000000,-1.038988,0.000000,4.394605
LINE129,17.663670,-0.843783,52.913158,3.334552,34.542665,1.247307
LINE130,0.000000,2.558061,0.000000,0.871123,0.000000,4.697222
LINE131,17.751249,-0.842759,0.000000,4.423663,0.000000,1.529053
LINE132,0.000000,-0.524175,35.406672,3.334754,34.642773,1.248050
LINE133,273.794924,-0.835644,217.743520,3.331402,192.064314,1.249313
LINE134,0.000000,1.969312,0.000000,-1.048103,0.000000,4.419676
LINE135,17.663670,-0.843783,52.913158,3.334552,34.542665,1.247307
LINE136,0.000000,2.045211,0.000000,1.082217,0.000000,4.698199
LINE137,17.751249,-0.842759,0.000000,4.522345,0.000000,1.525998
LINE138,0.000000,-0.517169,35.406672,3.334754,34.642773,1.248050
LINE139,273.794924,-0.835644,217.743520,3.331402,192.064314,1.249313
LINE140,0.000000,1.956108,0.000000,-1.022069,0.000000,4.421721
LINE141,17.663670,-0.843783,52.913158,3.334552,34.542665,1.247307
LINE142,0.000000,2.045211,0.000000,1.545864,0.000000,4.695269
LINE143,17.751249,-0.842759,0.000000,4.336602,0.000000,1.526340
LINE144,0.000000,-0.541928,35.406672,3.334754,34.642773,1.248050
LINE145,273.794924,-0.835644,217.743520,3.331402,192.064314,1.249313
LINE146,0.000000,1.908710,0.000000,-1.127416,0.000000,4.347178
LINE147,17.663670,-0.843783,52.913158,3.334552,34.542665,1.247307
LINE148,0.000000,1.926371,0.000000,1.545864,0.000000,4.696385
LINE149,17.751249,-0.842759,0.000000,4.539392,0.000000,1.508854
LINE150,0.000000,-0.658996,0.000000,0.665491,34.642773,1.248050
LINE151,0.000000,2.046220,35.406672,3.334754,0.000000,-1.549552
LINE152,273.794924,-0.835644,217.743520,3.331402,192.064314,1.249313
LINE153,0.000000,1.478386,0.000000,-0.510190,0.000000,4.080737
LINE154,17.663670,-0.843783,52.913158,3.334552,34.542665,1.247307
LINE155,0.000000,1.764533,0.000000,1.926371,0.000000,4.690805
LINE156,17.751249,-0.842759,0.000000,-1.259713,0.000000,1.501350
LINE157,0.000000,-0.669610,0.000000,0.669636,34.642773,1.248050
LINE158,0.000000,2.037269,35.406672,3.334754,0.000000,-1.546627
LINE159,273.794924,-0.835644,217.743520,3.331402,192.064314,1.249313
LINE160,0.000000,1.006483,0.000000,-0.737143,0.000000,1.873570
LINE161,0.000000,3.069694,17.614914,3.334441,0.000000,1.607221
LINE162,17.663670,-0.843783,35.298244,3.334607,34.542665,1.247307
LINE163,0.000000,1.764533,0.000000,1.545864,0.000000,4.685895
LINE164,17.751249,-0.842759,0.000000,4.335842,0.000000,1.526003
LINE165,0.000000,-0.662784,0.000000,0.682717,34.642773,1.248050
LINE166,0.000000,2.001578,35.406672,3.334754,0.000000,-1.552447
LINE167,273.794924,-0.835644,217.743520,3.331402,192.064314,1.249313
LINE168,0.000000,2.665102,0.000000,1.408080,0.000000,1.791865
LINE169,0.000000,3.138022,17.614914,3.334441,0.000000,1.755037
LINE170,17.663670,-0.843783,35.298244,3.334607,34.542665,1.247307
LINE171,0.000000,1.926371,0.000000,2.653013,0.000000,4.703081
LINE172,17.751249,-0.842759,0.000000,4.536997,0.000000,1.530212
LINE173,0.000000,-0.648911,0.000000,0.729575,0.000000,-1.332692
LINE174,0.000000,4.428334,0.000000,4.401489,34.642773,1.248050
LINE175,0.000000,2.083617,35.406672,3.334754,0.000000,-1.566414
LINE176,273.794924,-0.835644,217.743520,3.331402,192.064314,1.249313
LINE177,0.000000,2.562580,17.614914,3.334441,0.000000,1.480847
LINE178,17.663670,-0.843783,35.298244,3.334607,0.000000,-0.513933
LINE179,0.000000,2.580651,0.000000,3.513458,34.542665,1.247307
LINE180,0.000000,1.867615,0.000000,2.871682,0.000000,4.699175
LINE181,17.751249,-0.842759,0.000000,-0.875075,0.000000,1.528428
LINE182,0.000000,-0.614001,0.000000,0.633024,0.000000,-1.349543
LINE183,0.000000,-1.430400,0.000000,4.235445,34.642773,1.248050
LINE184,0.000000,2.014823,35.406672,3.334754,0.000000,4.710283
LINE185,273.794924,-0.835644,217.743520,3.331402,192.064314,1.249313
LINE186,17.663670,-0.843783,35.298244,3.334607,0.000000,4.306156
LINE187,0.000000,2.581080,0.000000,3.519475,34.542665,1.247307
LINE188,0.000000,1.545864,0.000000,1.545864,0.000000,3.116661
LINE189,17.751249,-0.842759,0.000000,-1.156553,0.000000,1.535012
LINE190,0.000000,2.822619,0.000000,0.681449,0.000000,-0.031142
LINE191,0.000000,-0.555924,0.000000,0.708528,0.000000,-1.444351
LINE192,0.000000,4.109900,0.000000,4.538093,34.642773,1.248050
LINE193,0.000000,1.903231,35.406672,3.334754,0.000000,-1.557667
LINE194,273.794924,-0.835644,217.743520,3.331402,192.064314,1.249313
LINE195,17.663670,-0.843783,35.298244,3.334607,0.000000,4.095612
LINE196,0.000000,-0.400337,0.000000,1.460824,17.270412,1.247294
LINE197,0.000000,2.647236,0.000000,3.599641,17.272253,1.247320
LINE198,0.000000,2.871682,0.000000,-0.024932,0.000000,1.569298
LINE199,17.751249,-0.842759,0.000000,-1.546236,0.000000,1.526278
LINE200,0.000000,-1.308666,0.000000,0.202740,0.000000,2.254151
LINE201,0.000000,-0.995009,0.000000,0.666639,0.000000,-1.211472
LINE202,0.000000,4.143959,0.000000,-1.415452,34.642773,1.248050
LINE203,0.000000,1.940620,35.406672,3.334754,0.000000,-1.522061
LINE204,273.794924,-0.835644,217.743520,3.331402,192.064314,1.249313
LINE205,17.663670,-0.843783,0.000000,3.039779,0.000000,1.573743
LINE206,0.000000,2.236041,35.298244,3.334607,0.000000,3.956921
LINE207,0.000000,2.959736,0.000000,2.959736,17.270412,1.247294
LINE208,0.000000,2.534036,0.000000,3.211817,17.272253,1.247320
LINE209,0.000000,1.545864,0.000000,3.116661,0.000000,3.116661
LINE210,17.751249,-0.842759,0.000000,4.565185,0.000000,1.525099
LINE211,0.000000,-0.855796,0.000000,0.767027,0.000000,-1.144566
LINE212,0.000000,4.147798,0.000000,-0.623804,34.642773,1.248050
LINE213,0.000000,2.075606,35.406672,3.334754,0.000000,-1.534892
LINE214,273.794924,-0.835644,217.743520,3.331402,192.064314,1.249313
LINE215,17.663670,-0.843783,0.000000,-1.086908,0.000000,1.576198
LINE216,0.000000,2.274227,35.298244,3.334607,0.000000,3.831938
LINE217,0.000000,-0.507177,0.000000,3.899723,17.272253,1.247320
LINE218,0.000000,1.545864,0.000000,0.000000,0.000000,-0.024932
LINE219,17.751249,-0.842759,0.000000,4.254215,0.000000,1.530388
LINE220,0.000000,-0.877188,0.000000,1.817581,0.000000,-0.773817
LINE221,0.000000,4.060605,0.000000,-0.433103,34.642773,1.248050
LINE222,0.000000,2.070060,35.406672,3.334754,0.000000,-1.509837
LINE223,273.794924,-0.835644,217.743520,3.331402,192.064314,1.249313
LINE224,17.663670,-0.843783,0.000000,1.207546,0.000000,1.549971
LINE225,0.000000,1.812658,35.298244,3.334607,0.000000,4.005541
LINE226,0.000000,-0.161054,0.000000,3.384487,17.272253,1.247320
LINE227,17.751249,-0.842759,0.000000,4.025619,0.000000,1.537604
LINE228,0.000000,-1.111296,0.000000,1.273667,0.000000,-0.674028
LINE229,0.000000,4.581154,0.000000,-0.439040,34.642773,1.248050
LINE230,0.000000,2.017490,35.406672,3.334754,0.000000,-1.511151
LINE231,273.794924,-0.835644,217.743520,3.331402,192.064314,1.249313
LINE232,0.000000,-0.560898,35.298244,3.334607,0.000000,-1.538844
LINE233,0.000000,4.127658,0.000000,0.802948,0.000000,-1.406890
LINE234,0.000000,-0.248135,0.000000,3.522427,17.272253,1.247320
LINE235,17.751249,-0.842759,0.000000,3.589085,0.000000,1.570891
LINE236,0.000000,-1.103985,0.000000,2.527459,0.000000,-0.559601
LINE237,0.000000,-0.986212,0.000000,-0.574249,34.642773,1.248050
LINE238,0.000000,2.283962,35.406672,3.334754,0.000000,-1.526793
LINE239,273.794924,-0.835644,217.743520,3.331402,192.064314,1.249313
LINE240,0.000000,-0.544572,35.298244,3.334607,0.000000,4.709943
LINE241,0.000000,4.250930,0.000000,3.222344,17.272253,1.247320
LINE242,17.751249,-0.842759,0.000000,3.629514,0.000000,1.568799
LINE243,0.000000,-1.453240,0.000000,2.792681,0.000000,-0.468592
LINE244,0.000000,-0.978869,0.000000,-0.634105,34.642773,1.248050
LINE245,0.000000,2.073010,35.406672,3.334754,0.000000,-1.521832
LINE246,273.794924,-0.835644,217.743520,3.331402,192.064314,1.249313
LINE247,0.000000,4.495597,17.649122,3.334607,0.000000,1.514827
LINE248,0.000000,4.503429,17.649122,3.334607,0.000000,4.457062
LINE249,0.000000,0.077704,0.000000,0.800504,17.272253,1.247320
LINE250,17.751249,-0.842759,0.000000,3.411261,0.000000,1.885665
LINE251,0.000000,3.662440,0.000000,1.855525,0.000000,-1.363770
LINE252,0.000000,4.284492,0.000000,-0.558103,34.642773,1.248050
LINE253,0.000000,2.108614,35.406672,3.334754,0.000000,-1.521623
LINE254,17.945046,-0.841232,0.000000,3.491419,0.000000,4.639406
LINE255,255.850177,-0.835252,217.743520,3.331402,192.064314,1.249313
LINE256,0.000000,-0.437397,0.000000,3.257757,17.272253,1.247320
LINE257,17.751249,-0.842759,0.000000,3.651305,0.000000,4.392752
LINE258,0.000000,2.986925,0.000000,0.753272,0.000000,-1.308546
LINE259,0.000000,4.368208,0.000000,-0.654521,34.642773,1.248050
LINE260,0.000000,2.149429,35.406672,3.334754,0.000000,-1.520503
LINE261,17.945046,-0.841232,0.000000,3.450467,0.000000,4.643187
LINE262,255.850177,-0.835252,217.743520,3.331402,192.064314,1.249313
LINE263,0.000000,0.701859,0.000000,0.518291,17.272253,1.247320
LINE264,17.751249,-0.842759,0.000000,3.474007,0.000000,4.687472
LINE265,0.000000,3.199420,0.000000,1.891804,0.000000,-1.032514
LINE266,0.000000,-1.488633,0.000000,-0.654684,34.642773,1.248050
LINE267,0.000000,-1.524900,17.704895,3.334776,0.000000,1.659119
LINE268,0.000000,1.563957,17.701777,3.334732,0.000000,4.702662
LINE269,17.945046,-0.841232,0.000000,3.566011,0.000000,4.645463
LINE270,0.000000,-0.773737,0.000000,3.254907,17.384748,1.249423
LINE271,255.850177,-0.835252,217.743520,3.331402,174.679567,1.249302
LINE272,17.751249,-0.842759,0.000000,4.655480,0.000000,1.648977
LINE273,0.000000,1.927509,0.000000,3.110235,0.000000,-0.081658
LINE274,0.000000,-0.992594,0.000000,-0.489834,34.642773,1.248050
LINE275,0.000000,2.347416,17.704895,3.334776,0.000000,4.692106
LINE276,0.000000,1.342826,17.701777,3.334732,0.000000,4.664276
LINE277,17.945046,-0.841232,0.000000,3.170698,0.000000,4.645258
LINE278,0.000000,-0.731112,0.000000,3.356503,17.384748,1.249423
LINE279,255.850177,-0.835252,217.743520,3.331402,174.679567,1.249302
LINE280,17.751249,-0.842759,0.000000,-0.880619,0.000000,-1.397467
LINE281,0.000000,0.460455,0.000000,3.793299,0.000000,4.644866
LINE282,0.000000,4.640201,0.000000,-0.771252,34.642773,1.248050
LINE283,0.000000,0.913275,17.701777,3.334732,0.000000,4.630245
LINE284,17.945046,-0.841232,0.000000,3.149085,0.000000,4.646379
LINE285,0.000000,-0.866301,0.000000,3.298650,17.384748,1.249423
LINE286,127.959270,-0.834444,72.463830,3.329118,34.734957,1.249966
LINE287,127.890991,-0.836061,145.279973,3.332541,139.944620,1.249137
LINE288,17.751249,-0.842759,0.000000,1.785604,0.000000,1.501542
LINE289,0.000000,3.894098,0.000000,-0.378103,0.000000,4.195574
LINE290,0.000000,0.855291,0.000000,3.095609,17.324046,1.248088
LINE291,0.000000,-0.542220,0.000000,-0.186456,17.318727,1.248012
LINE292,0.000000,2.808630,17.701777,3.334732,0.000000,4.630808
LINE293,17.945046,-0.841232,0.000000,3.193697,0.000000,4.649696
LINE294,0.000000,-0.845649,0.000000,3.376945,17.384748,1.249423
LINE295,127.959270,-0.834444,72.463830,3.329118,34.734957,1.249966
LINE296,127.890991,-0.836061,145.279973,3.332541,139.944620,1.249137
LINE297,0.000000,-0.224832,0.000000,3.158363,17.324046,1.248088
LINE298,0.000000,-0.085356,0.000000,3.272340,17.318727,1.248012
LINE299,0.000000,2.769583,17.701777,3.334732,0.000000,4.506514
LINE300,17.945046,-0.841232,0.000000,3.293808,0.000000,4.664016
LINE301,0.000000,-0.827571,0.000000,3.186205,17.384748,1.249423
LINE302,127.959270,-0.834444,72.463830,3.329118,34.734957,1.249966
LINE303,127.890991,-0.836061,145.279973,3.332541,139.944620,1.249137
LINE304,0.000000,2.814547,0.000000,-0.318055,17.324046,1.248088
LINE305,0.000000,1.094836,0.000000,0.391378,17.318727,1.248012
LINE306,0.000000,-1.216771,17.701777,3.334732,0.000000,1.558266
LINE307,17.945046,-0.841232,0.000000,3.330401,0.000000,4.640019
LINE308,0.000000,-0.865504,0.000000,3.354929,17.384748,1.249423
LINE309,127.959270,-0.834444,72.463830,3.329118,34.734957,1.249966
LINE310,127.890991,-0.836061,145.279973,3.332541,139.944620,1.249137
LINE311,0.000000,-0.494364,0.000000,-0.494364,17.324046,1.248088
LINE312,0.000000,3.257584,0.000000,0.804341,17.318727,1.248012
LINE313,0.000000,4.429372,17.701777,3.334732,0.000000,1.468261
LINE314,17.945046,-0.841232,0.000000,3.319560,0.000000,4.639555
LINE315,0.000000,-1.177341,0.000000,3.173808,17.384748,1.249423
LINE316,36.134156,-0.839550,0.000000,3.374085,0.000000,4.406728
LINE317,91.825771,-0.832435,72.463830,3.329118,34.734957,1.249966
LINE318,127.890991,-0.836061,145.279973,3.332541,139.944620,1.249137
LINE319,0.000000,0.314370,0.000000,2.825483,17.324046,1.248088
LINE320,0.000000,2.678139,0.000000,-1.234407,17.318727,1.248012
LINE321,17.945046,-0.841232,0.000000,3.382008,0.000000,4.636223
LINE322,0.000000,-0.417244,0.000000,2.671831,17.384748,1.249423
LINE323,36.134156,-0.839550,0.000000,3.395212,0.000000,4.142955
LINE324,91.825771,-0.832435,72.463830,3.329118,34.734957,1.249966
LINE325,127.890991,-0.836061,145.279973,3.332541,139.944620,1.249137
LINE326,0.000000,1.778278,0.000000,4.447764,17.318727,1.248012
LINE327,17.945046,-0.841232,0.000000,3.462406,0.000000,4.634595
LINE328,0.000000,1.190489,0.000000,2.454028,17.384748,1.249423
LINE329,36.134156,-0.839550,0.000000,3.419786,0.000000,4.264794
LINE330,0.000000,2.754809,0.000000,3.084117,17.385968,1.250086
LINE331,91.825771,-0.832435,72.463830,3.329118,17.348989,1.249846
LINE332,127.890991,-0.836061,145.279973,3.332541,139.944620,1.249137
LINE333,17.945046,-0.841232,0.000000,3.353461,0.000000,4.638506
LINE334,0.000000,3.751420,0.000000,1.998867,17.384748,1.249423
LINE335,36.134156,-0.839550,0.000000,3.403014,0.000000,4.189666
LINE336,0.000000,0.880618,0.000000,-0.028247,17.385968,1.250086
LINE337,0.000000,-1.257591,17.936221,3.330882,0.000000,1.574962
LINE338,91.825771,-0.832435,54.527646,3.328538,17.348989,1.249846
LINE339,127.890991,-0.836061,145.279973,3.332541,139.944620,1.249137
LINE340,17.945046,-0.841232,0.000000,3.445326,0.000000,4.632599
LINE341,0.000000,2.965205,0.000000,2.753701,17.384748,1.249423
LINE342,18.064430,-0.839586,0.000000,3.443025,0.000000,1.565755
LINE343,18.069726,-0.839513,0.000000,3.576508,0.000000,4.262923
LINE344,0.000000,-1.234241,17.936221,3.330882,0.000000,1.575231
LINE345,91.825771,-0.832435,54.527646,3.328538,17.348989,1.249846
LINE346,127.890991,-0.836061,145.279973,3.332541,139.944620,1.249137
LINE347,17.945046,-0.841232,0.000000,3.618441,0.000000,4.622812
LINE348,18.064430,-0.839586,0.000000,1.060670,0.000000,1.609159
LINE349,18.069726,-0.839513,0.000000,3.477179,0.000000,3.697298
LINE350,0.000000,-1.494690,17.936221,3.330882,0.000000,1.570207
LINE351,91.825771,-0.832435,54.527646,3.328538,17.348989,1.249846
LINE352,127.890991,-0.836061,145.279973,3.332541,139.944620,1.249137
LINE353,17.945046,-0.841232,0.000000,3.647040,0.000000,4.564826
LINE354,18.069726,-0.839513,0.000000,0.112098,0.000000,4.219197
LINE355,0.000000,4.066912,17.936221,3.330882,0.000000,1.567159
LINE356,91.825771,-0.832435,54.527646,3.328538,17.348989,1.249846
LINE357,127.890991,-0.836061,145.279973,3.332541,139.944620,1.249137
LINE358,17.945046,-0.841232,0.000000,3.908512,0.000000,4.442335
LINE359,18.069726,-0.839513,0.000000,1.263304,0.000000,4.626863
LINE360,0.000000,-1.477590,17.936221,3.330882,0.000000,1.461510
LINE361,91.825771,-0.832435,54.527646,3.328538,17.348989,1.249846
LINE362,127.890991,-0.836061,145.279973,3.332541,139.944620,1.249137
LINE363,17.945046,-0.841232,0.000000,3.887013,0.000000,1.886771
LINE364,18.069726,-0.839513,0.000000,-0.093178,0.000000,4.679137
LINE365,0.000000,2.406842,17.936221,3.330882,0.000000,1.485681
LINE366,91.825771,-0.832435,54.527646,3.328538,17.348989,1.249846
LINE367,127.890991,-0.836061,145.279973,3.332541,139.944620,1.249137
LINE368,17.945046,-0.841232,0.000000,4.536711,0.000000,2.063611
LINE369,18.069726,-0.839513,0.000000,-1.099569,0.000000,2.063281
LINE370,0.000000,3.450288,17.936221,3.330882,0.000000,1.501786
LINE371,91.825771,-0.832435,54.527646,3.328538,17.348989,1.249846
LINE372,127.890991,-0.836061,145.279973,3.332541,139.944620,1.249137
LINE373,17.945046,-0.841232,0.000000,3.748214,0.000000,4.652195
LINE374,18.069726,-0.839513,0.000000,2.331270,0.000000,4.530354
LINE375,0.000000,0.201022,17.936221,3.330882,0.000000,1.582365
LINE376,91.825771,-0.832435,54.527646,3.328538,17.348989,1.249846
LINE377,127.890991,-0.836061,145.279973,3.332541,122.516423,1.249063
LINE378,0.000000,0.769093,0.000000,1.356389,17.428200,1.249655
LINE379,17.945046,-0.841232,0.000000,-0.277629,0.000000,4.547491
LINE380,18.069726,-0.839513,0.000000,0.036324,0.000000,-1.522549
LINE381,0.000000,-0.152292,17.936221,3.330882,0.000000,1.639772
LINE382,91.825771,-0.832435,54.527646,3.328538,17.348989,1.249846
LINE383,127.890991,-0.836061,145.279973,3.332541,122.516423,1.249063
LINE384,0.000000,0.625532,0.000000,3.897473,17.428200,1.249655
LINE385,0.000000,0.837707,0.000000,0.869619,0.000000,-1.565593
LINE386,17.945046,-0.841232,0.000000,0.298286,0.000000,1.685926
LINE387,18.069726,-0.839513,0.000000,-0.214648,0.000000,1.514472
LINE388,0.000000,0.604555,17.936221,3.330882,0.000000,1.586127
LINE389,91.825771,-0.832435,54.527646,3.328538,17.348989,1.249846
LINE390,127.890991,-0.836061,145.279973,3.332541,122.516423,1.249063
LINE391,0.000000,0.581727,0.000000,3.867525,17.428200,1.249655
LINE392,0.000000,0.834122,0.000000,0.876639,0.000000,-1.565733
LINE393,0.000000,1.058355,17.936221,3.330882,0.000000,4.711710
LINE394,91.825771,-0.832435,54.527646,3.328538,17.348989,1.249846
LINE395,0.000000,-1.457909,0.000000,-0.484066,34.914283,1.249750
LINE396,127.890991,-0.836061,145.279973,3.332541,87.602151,1.248789
LINE397,0.000000,0.921272,0.000000,3.921709,17.428200,1.249655
LINE398,0.000000,0.866258,0.000000,0.894777,0.000000,4.707872
LINE399,0.000000,-1.512097,17.936221,3.330882,0.000000,1.433276
LINE400,91.825771,-0.832435,54.527646,3.328538,17.348989,1.249846
LINE401,0.000000,-1.504319,0.000000,-0.409376,34.914283,1.249750
LINE402,127.890991,-0.836061,145.279973,3.332541,87.602151,1.248789
LINE403,0.000000,0.994890,0.000000,4.107558,17.428200,1.249655
LINE404,0.000000,0.633839,0.000000,0.724717,0.000000,-1.529566
LINE405,0.000000,1.024240,17.936221,3.330882,0.000000,0.978637
LINE406,91.825771,-0.832435,54.527646,3.328538,17.348989,1.249846
LINE407,0.000000,-1.491138,0.000000,-0.532603,34.914283,1.249750
LINE408,127.890991,-0.836061,145.279973,3.332541,87.602151,1.248789
LINE409,0.000000,-0.925529,0.000000,-1.291513,0.000000,1.898921
LINE410,0.000000,2.391033,0.000000,4.200022,17.428200,1.249655
LINE411,0.000000,0.742005,0.000000,0.404007,0.000000,-1.490246
LINE412,91.825771,-0.832435,54.527646,3.328538,17.348989,1.249846
LINE413,0.000000,4.442183,0.000000,-1.404439,34.914283,1.249750
LINE414,127.890991,-0.836061,145.279973,3.332541,87.602151,1.248789
LINE415,0.000000,-0.700265,0.000000,-1.325814,0.000000,1.894933
LINE416,0.000000,4.069868,0.000000,4.208359,17.428200,1.249655
LINE417,0.000000,0.294833,0.000000,0.846809,0.000000,-1.502168
LINE418,91.825771,-0.832435,54.527646,3.328538,17.348989,1.249846
LINE419,0.000000,4.402380,0.000000,-1.413738,34.914283,1.249750
LINE420,127.890991,-0.836061,145.279973,3.332541,87.602151,1.248789
LINE421,0.000000,-0.713040,0.000000,-1.305198,0.000000,1.864830
LINE422,0.000000,1.763679,0.000000,3.771660,17.428200,1.249655
LINE423,0.000000,0.266046,0.000000,0.757201,0.000000,-1.471705
LINE424,91.825771,-0.832435,54.527646,3.328538,17.348989,1.249846
LINE425,0.000000,0.257759,0.000000,3.453694,0.000000,4.636466
LINE426,0.000000,4.284829,0.000000,-1.420622,34.914283,1.249750
LINE427,127.890991,-0.836061,145.279973,3.332541,87.602151,1.248789
LINE428,0.000000,-0.794316,0.000000,-1.480840,0.000000,1.742844
LINE429,0.000000,0.737837,0.000000,-0.870417,17.428200,1.249655
LINE430,0.000000,0.339963,0.000000,0.819420,0.000000,-1.470448
LINE431,91.825771,-0.832435,54.527646,3.328538,17.348989,1.249846
LINE432,0.000000,-0.352569,0.000000,-0.352569,0.000000,3.729197
LINE433,0.000000,4.258972,0.000000,-1.550952,34.914283,1.249750
LINE434,127.890991,-0.836061,145.279973,3.332541,87.602151,1.248789
LINE435,0.000000,-0.863263,0.000000,-1.387515,0.000000,1.737050
LINE436,0.000000,-0.891873,0.000000,-0.047172,17.428200,1.249655
LINE437,0.000000,0.324410,0.000000,0.546768,0.000000,-1.479162
LINE438,91.825771,-0.832435,54.527646,3.328538,17.348989,1.249846
LINE439,0.000000,2.939912,0.000000,2.939912,0.000000,-0.145406
LINE440,0.000000,4.248658,0.000000,4.560526,34.914283,1.249750
LINE441,127.890991,-0.836061,145.279973,3.332541,87.602151,1.248789
LINE442,0.000000,-0.836244,0.000000,-1.396083,0.000000,2.049189
LINE443,0.000000,-0.789490,0.000000,0.364774,17.428200,1.249655
LINE444,0.000000,0.367909,0.000000,0.600738,0.000000,-1.494485
LINE445,91.825771,-0.832435,54.527646,3.328538,17.348989,1.249846
LINE446,0.000000,2.362466,0.000000,0.279018,0.000000,-0.868407
LINE447,0.000000,4.232496,0.000000,4.562100,34.914283,1.249750
LINE448,127.890991,-0.836061,145.279973,3.332541,87.602151,1.248789
LINE449,0.000000,-1.053498,0.000000,-1.012004,0.000000,2.210883
LINE450,0.000000,4.649048,0.000000,1.488843,17.428200,1.249655
LINE451,0.000000,0.525788,0.000000,0.599852,0.000000,-1.468417
LINE452,91.825771,-0.832435,54.527646,3.328538,17.348989,1.249846
LINE453,0.000000,1.356410,0.000000,1.356410,0.000000,1.583680
LINE454,0.000000,4.234477,0.000000,4.615291,34.914283,1.249750
LINE455,127.890991,-0.836061,145.279973,3.332541,87.602151,1.248789
LINE456,0.000000,-0.279527,0.000000,-1.406084,0.000000,2.119483
LINE457,0.000000,2.918666,0.000000,3.381134,17.428200,1.249655
LINE458,0.000000,0.599358,0.000000,0.959563,0.000000,-1.485551
LINE459,73.520206,-0.832049,54.527646,3.328538,17.348989,1.249846
LINE460,0.000000,-1.353528,0.000000,-1.353528,0.000000,1.844339
LINE461,18.305592,-0.833988,0.000000,0.610963,0.000000,-1.526819
LINE462,0.000000,4.101999,0.000000,4.689019,34.914283,1.249750
LINE463,127.890991,-0.836061,145.279973,3.332541,87.602151,1.248789
LINE464,0.000000,-0.704503,0.000000,4.701615,0.000000,1.972950
LINE465,0.000000,0.581897,0.000000,0.872126,0.000000,-1.489404
LINE466,73.520206,-0.832049,54.527646,3.328538,17.348989,1.249846
LINE467,0.000000,0.144262,0.000000,3.606605,0.000000,0.824546
LINE468,0.000000,2.903409,0.000000,2.903409,0.000000,1.125303
LINE469,18.305592,-0.833988,0.000000,0.651309,0.000000,-1.541775
LINE470,0.000000,4.122989,0.000000,-1.287023,34.914283,1.249750
LINE471,127.890991,-0.836061,145.279973,3.332541,87.602151,1.248789
LINE472,0.000000,-0.303988,0.000000,-1.504239,0.000000,2.114292
LINE473,0.000000,0.573516,0.000000,0.923097,0.000000,-1.480291
LINE474,73.520206,-0.832049,54.527646,3.328538,17.348989,1.249846
LINE475,0.000000,0.502834,0.000000,1.916815,0.000000,4.334803
LINE476,18.305592,-0.833988,0.000000,0.626305,0.000000,-1.545986
LINE477,0.000000,4.083178,0.000000,-1.475764,34.914283,1.249750
LINE478,127.890991,-0.836061,145.279973,3.332541,87.602151,1.248789
LINE479,0.000000,-0.478992,0.000000,-1.362742,0.000000,3.174451
LINE480,0.000000,0.578117,0.000000,-0.079864,0.000000,-1.190034
LINE481,36.779752,-0.831553,54.527646,3.328538,17.348989,1.249846
LINE482,0.000000,-0.376983,0.000000,0.619761,0.000000,3.717743
LINE483,36.740463,-0.832545,0.000000,0.364416,0.000000,-1.549002
LINE484,18.305592,-0.833988,0.000000,0.841592,0.000000,-1.556074
LINE485,0.000000,4.047995,0.000000,-1.044461,34.914283,1.249750
LINE486,127.890991,-0.836061,145.279973,3.332541,87.602151,1.248789
LINE487,0.000000,-0.493615,0.000000,4.674610,0.000000,2.202171
LINE488,0.000000,-0.082305,0.000000,3.436148,0.000000,1.422186
LINE489,36.779752,-0.831553,54.527646,3.328538,17.348989,1.249846
LINE490,0.000000,0.218116,0.000000,-0.123176,0.000000,2.283388
LINE491,18.369286,-0.832557,0.000000,0.355552,0.000000,-1.543550
LINE492,18.371177,-0.832532,0.000000,0.393811,0.000000,1.493430
LINE493,18.305592,-0.833988,0.000000,0.664214,0.000000,4.673179
LINE494,0.000000,4.261119,0.000000,4.642219,34.914283,1.249750
LINE495,127.890991,-0.836061,145.279973,3.332541,87.602151,1.248789
LINE496,0.000000,-0.467572,0.000000,-1.507699,0.000000,2.243288
LINE497,0.000000,1.496285,0.000000,4.634254,0.000000,1.503263
LINE498,36.779752,-0.831553,54.527646,3.328538,17.348989,1.249846
LINE499,0.000000,-0.371163,0.000000,0.601647,0.000000,3.536894
LINE500,18.369286,-0.832557,0.000000,0.364682,0.000000,-1.566218
LINE501,18.371177,-0.832532,0.000000,3.432143,0.000000,1.654826
LINE502,18.305592,-0.833988,0.000000,0.640327,0.000000,4.676460
LINE503,0.000000,3.912977,0.000000,-1.196193,34.914283,1.249750
LINE504,127.890991,-0.836061,145.279973,3.332541,87.602151,1.248789
LINE505,0.000000,-0.720795,0.000000,-1.123113,0.000000,3.344318
LINE506,0.000000,4.508181,0.000000,1.496217,0.000000,-0.330743
LINE507,36.779752,-0.831553,54.527646,3.328538,17.348989,1.249846
LINE508,0.000000,-0.906259,0.000000,-0.906259,0.000000,1.799909
LINE509,18.369286,-0.832557,0.000000,0.161864,0.000000,-1.516983
LINE510,18.305592,-0.833988,0.000000,0.548544,0.000000,4.681046
LINE511,0.000000,4.319968,0.000000,0.091272,34.914283,1.249750
LINE512,0.000000,0.637922,17.998219,3.332510,0.000000,1.527099
LINE513,127.890991,-0.836061,127.281754,3.332546,87.602151,1.248789
LINE514,0.000000,-0.465126,0.000000,-1.104357,0.000000,3.348122
LINE515,0.000000,2.627047,54.527646,3.328538,17.348989,1.249846
LINE516,0.000000,3.987616,0.000000,3.319029,0.000000,1.364755
LINE517,36.779752,-0.831553,0.000000,-0.262081,0.000000,4.630913
LINE518,18.369286,-0.832557,0.000000,0.315660,0.000000,-1.534962
LINE519,18.305592,-0.833988,0.000000,0.575826,0.000000,4.669438
LINE520,0.000000,3.613590,0.000000,2.343851,34.914283,1.249750
LINE521,0.000000,3.537936,17.998219,3.332510,0.000000,4.712045
LINE522,127.890991,-0.836061,127.281754,3.332546,87.602151,1.248789
LINE523,0.000000,-0.451948,0.000000,-1.192258,0.000000,1.982973
LINE524,0.000000,2.629125,54.527646,3.328538,17.348989,1.249846
LINE525,0.000000,1.452499,0.000000,1.452499,0.000000,1.706259
LINE526,36.779752,-0.831553,0.000000,-0.264619,0.000000,4.637370
LINE527,18.369286,-0.832557,0.000000,0.368952,0.000000,-1.509704
LINE528,18.305592,-0.833988,0.000000,0.412786,0.000000,1.669692
LINE529,0.000000,-0.178677,0.000000,3.450710,34.914283,1.249750
LINE530,127.890991,-0.836061,127.281754,3.332546,87.602151,1.248789
LINE531,0.000000,-0.309149,0.000000,4.611354,0.000000,1.817924
LINE532,0.000000,2.631425,54.527646,3.328538,17.348989,1.249846
LINE533,0.000000,-0.450306,0.000000,-1.050809,0.000000,3.451427
LINE534,36.779752,-0.831553,0.000000,-0.254231,0.000000,4.646569
LINE535,18.369286,-0.832557,0.000000,0.288473,0.000000,1.525790
LINE536,18.305592,-0.833988,0.000000,0.397889,0.000000,4.265706
LINE537,0.000000,0.312950,0.000000,3.229136,17.460169,1.249792
LINE538,0.000000,2.266642,0.000000,3.280087,17.454114,1.249707
LINE539,127.890991,-0.836061,127.281754,3.332546,87.602151,1.248789
LINE540,0.000000,0.253412,0.000000,-0.896012,0.000000,1.233559
LINE541,0.000000,2.639585,54.527646,3.328538,17.348989,1.249846
LINE542,0.000000,-0.615802,0.000000,3.692419,0.000000,-1.263025
LINE543,36.779752,-0.831553,0.000000,-0.259054,0.000000,4.626623
LINE544,18.369286,-0.832557,0.000000,-0.630217,0.000000,-1.205945
LINE545,18.305592,-0.833988,0.000000,0.447274,0.000000,4.441874
LINE546,0.000000,0.339211,0.000000,3.585166,17.460169,1.249792
LINE547,127.890991,-0.836061,127.281754,3.332546,87.602151,1.248789
LINE548,0.000000,0.406454,0.000000,-1.221449,0.000000,-1.095422
LINE549,0.000000,2.631328,54.527646,3.328538,17.348989,1.249846
LINE550,0.000000,-0.140598,0.000000,2.939912,0.000000,2.647195
LINE551,18.389642,-0.831557,0.000000,-0.225979,0.000000,4.641409
LINE552,18.390110,-0.831550,0.000000,1.122548,0.000000,4.290894
LINE553,18.369286,-0.832557,0.000000,3.955587,0.000000,1.572543
LINE554,18.305592,-0.833988,0.000000,0.446920,0.000000,2.460068
LINE555,0.000000,1.051370,0.000000,-0.217346,17.460169,1.249792
LINE556,127.890991,-0.836061,127.281754,3.332546,87.602151,1.248789
LINE557,0.000000,1.237916,0.000000,3.343060,0.000000,4.028974
LINE558,0.000000,2.635662,54.527646,3.328538,17.348989,1.249846
LINE559,0.000000,3.628161,0.000000,3.628161,0.000000,1.647480
LINE560,18.389642,-0.831557,0.000000,-0.176885,0.000000,4.628758
LINE561,18.390110,-0.831550,0.000000,-0.395446,0.000000,3.277808
LINE562,18.369286,-0.832557,0.000000,1.784388,0.000000,0.619889
LINE563,18.305592,-0.833988,0.000000,0.780086,0.000000,4.654278
LINE564,127.890991,-0.836061,127.281754,3.332546,87.602151,1.248789
LINE565,0.000000,1.282479,0.000000,1.245708,0.000000,4.348839
LINE566,0.000000,2.692764,18.170683,3.328577,17.348989,1.249846
LINE567,0.000000,-0.001544,0.000000,3.263042,0.000000,0.509585
LINE568,0.000000,1.618207,36.356963,3.328519,0.000000,4.646550
LINE569,18.389642,-0.831557,0.000000,-0.014488,0.000000,-1.558852
LINE570,18.305592,-0.833988,0.000000,0.406650,0.000000,4.701603
LINE571,127.890991,-0.836061,127.281754,3.332546,87.602151,1.248789
LINE572,0.000000,2.733676,18.170683,3.328577,17.348989,1.249846
LINE573,0.000000,0.371587,0.000000,-0.201046,0.000000,1.745995
LINE574,0.000000,1.681957,36.356963,3.328519,0.000000,4.651713
LINE575,18.389642,-0.831557,0.000000,-0.751134,0.000000,1.633945
LINE576,18.305592,-0.833988,0.000000,0.591423,0.000000,4.677064
LINE577,127.890991,-0.836061,127.281754,3.332546,87.602151,1.248789
LINE578,0.000000,4.375801,18.170683,3.328577,17.348989,1.249846
LINE579,0.000000,0.627356,0.000000,2.305412,0.000000,1.838267
LINE580,0.000000,2.738387,0.000000,0.326832,0.000000,4.695389
LINE581,0.000000,1.953750,36.356963,3.328519,0.000000,4.656630
LINE582,18.389642,-0.831557,0.000000,-0.248336,0.000000,1.631184
LINE583,18.305592,-0.833988,0.000000,0.459406,0.000000,-1.545766
LINE584,0.000000,0.267462,18.016059,3.332575,0.000000,1.618603
LINE585,127.890991,-0.836061,109.265695,3.332541,87.602151,1.248789
LINE586,0.000000,-0.458141,18.170683,3.328577,17.348989,1.249846
LINE587,0.000000,3.203320,0.000000,0.314730,0.000000,1.194030
LINE588,0.000000,2.817944,0.000000,0.345005,0.000000,-1.543655
LINE589,0.000000,2.224556,36.356963,3.328519,0.000000,4.668646
LINE590,18.389642,-0.831557,0.000000,-0.009223,0.000000,4.579197
LINE591,18.305592,-0.833988,0.000000,0.529408,0.000000,4.693743
LINE592,0.000000,0.274535,18.016059,3.332575,0.000000,1.602195
LINE593,127.890991,-0.836061,109.265695,3.332541,87.602151,1.248789
LINE594,0.000000,4.694135,18.170683,3.328577,0.000000,-1.410470
LINE595,0.000000,-0.851451,0.000000,2.903097,17.348989,1.249846
LINE596,0.000000,2.750123,0.000000,0.414619,0.000000,4.705168
LINE597,0.000000,2.302128,36.356963,3.328519,0.000000,4.663625
LINE598,18.389642,-0.831557,0.000000,-0.511895,0.000000,1.346199
LINE599,18.305592,-0.833988,0.000000,0.743366,0.000000,4.706595
LINE600,0.000000,0.193317,18.016059,3.332575,0.000000,1.593315
LINE601,0.000000,3.656064,0.000000,1.339629,17.475049,1.248932
LINE602,127.890991,-0.836061,109.265695,3.332541,70.127103,1.248753
LINE603,0.000000,3.023353,18.170683,3.328577,0.000000,-1.485924
LINE604,0.000000,0.107298,0.000000,3.548429,0.000000,2.504633
LINE605,0.000000,3.421984,0.000000,0.358908,0.000000,4.711401
LINE606,0.000000,-0.704643,0.000000,2.305151,17.348989,1.249846
LINE607,0.000000,4.636826,0.000000,4.694853,0.000000,1.560785
LINE608,0.000000,2.832830,0.000000,0.162175,0.000000,-1.526290
LINE609,0.000000,2.303816,36.356963,3.328519,0.000000,4.660924
LINE610,18.389642,-0.831557,0.000000,2.120057,0.000000,1.651355
LINE611,18.305592,-0.833988,0.000000,2.749491,0.000000,4.692322
LINE612,0.000000,0.169157,18.016059,3.332575,0.000000,1.548475
LINE613,0.000000,0.945828,0.000000,3.032163,17.475049,1.248932
LINE614,127.890991,-0.836061,109.265695,3.332541,70.127103,1.248753
LINE615,0.000000,3.970129,18.170683,3.328577,0.000000,-0.067519
LINE616,0.000000,1.476920,0.000000,1.476920,0.000000,1.630804
LINE617,0.000000,2.549243,0.000000,0.457579,0.000000,2.400272
LINE618,0.000000,0.006411,0.000000,3.419122,17.348989,1.249846
LINE619,0.000000,2.923128,0.000000,0.238414,0.000000,-1.479906
LINE620,0.000000,2.230797,36.356963,3.328519,0.000000,4.656979
LINE621,18.305592,-0.833988,0.000000,2.234674,0.000000,1.771574
LINE622,0.000000,0.154833,18.016059,3.332575,0.000000,1.537393
LINE623,0.000000,4.326581,18.050677,3.332106,0.000000,0.924517
LINE624,127.890991,-0.836061,91.215020,3.332627,70.127103,1.248753
LINE625,0.000000,4.644870,18.170683,3.328577,0.000000,1.335596
LINE626,0.000000,3.303849,0.000000,0.163830,0.000000,-1.308578
LINE627,0.000000,2.178067,36.356963,3.328519,0.000000,4.652322
LINE628,18.305592,-0.833988,0.000000,4.698138,0.000000,-1.442365
LINE629,0.000000,0.205871,18.016059,3.332575,0.000000,1.592630
LINE630,0.000000,4.306397,18.050677,3.332106,0.000000,-1.154508
LINE631,127.890991,-0.836061,91.215020,3.332627,70.127103,1.248753
LINE632,0.000000,0.000000,18.170683,3.328577,0.000000,-0.067519
LINE633,0.000000,2.959822,0.000000,0.772294,0.000000,-1.306118
LINE634,0.000000,2.016245,36.356963,3.328519,0.000000,4.645154
LINE635,0.000000,0.158790,18.016059,3.332575,0.000000,1.567846
LINE636,0.000000,3.650057,18.050677,3.332106,0.000000,1.407005
LINE637,127.890991,-0.836061,91.215020,3.332627,70.127103,1.248753
LINE638,0.000000,0.000000,18.170683,3.328577,0.000000,-1.471900
LINE639,0.000000,3.918351,0.000000,-0.101443,0.000000,-1.464066
LINE640,0.000000,1.892424,36.356963,3.328519,0.000000,4.640698
LINE641,0.000000,0.113655,18.016059,3.332575,0.000000,1.561915
LINE642,0.000000,3.707824,18.050677,3.332106,0.000000,1.550594
LINE643,127.890991,-0.836061,91.215020,3.332627,70.127103,1.248753
LINE644,0.000000,2.440430,0.000000,-0.523812,0.000000,-1.512422
LINE645,0.000000,1.842017,36.356963,3.328519,0.000000,4.638452
LINE646,0.000000,0.122828,18.016059,3.332575,0.000000,1.575351
LINE647,0.000000,3.417638,18.050677,3.332106,0.000000,1.508130
LINE648,127.890991,-0.836061,91.215020,3.332627,70.127103,1.248753
LINE649,0.000000,2.157189,0.000000,0.388404,0.000000,-1.562706
LINE650,0.000000,2.265359,36.356963,3.328519,0.000000,4.652165
LINE651,0.000000,0.117736,18.016059,3.332575,0.000000,1.577916
LINE652,0.000000,3.531462,18.050677,3.332106,0.000000,1.556092
LINE653,127.890991,-0.836061,91.215020,3.332627,70.127103,1.248753
LINE654,0.000000,1.991391,0.000000,0.860715,0.000000,-1.240421
LINE655,0.000000,4.059831,18.179031,3.328526,0.000000,4.525019
LINE656,0.000000,-0.928426,18.177932,3.328512,0.000000,1.580456
LINE657,0.000000,0.074504,18.016059,3.332575,0.000000,1.554399
LINE658,0.000000,3.312345,18.050677,3.332106,0.000000,1.580466
LINE659,127.890991,-0.836061,91.215020,3.332627,70.127103,1.248753
LINE660,0.000000,1.653692,0.000000,0.295890,0.000000,-1.478509
LINE661,0.000000,-1.309878,18.179031,3.328526,0.000000,4.604149
LINE662,0.000000,4.112979,18.177932,3.328512,0.000000,1.541209
LINE663,0.000000,0.084412,18.016059,3.332575,0.000000,1.555339
LINE664,0.000000,2.985257,18.050677,3.332106,0.000000,1.471653
LINE665,127.890991,-0.836061,91.215020,3.332627,70.127103,1.248753
LINE666,0.000000,1.584585,0.000000,0.645801,0.000000,4.649865
LINE667,0.000000,4.475432,18.179031,3.328526,0.000000,4.615922
LINE668,0.000000,3.198944,18.177932,3.328512,0.000000,1.518078
LINE669,0.000000,0.040720,18.016059,3.332575,0.000000,1.549543
LINE670,0.000000,3.323196,18.050677,3.332106,0.000000,1.252885
LINE671,54.724266,-0.837288,0.000000,0.114691,0.000000,4.634878
LINE672,73.166797,-0.835143,91.215020,3.332627,70.127103,1.248753
LINE673,0.000000,1.601887,0.000000,0.554016,0.000000,-1.215395
LINE674,0.000000,0.202942,18.179031,3.328526,0.000000,4.702757
LINE675,0.000000,2.712505,18.177932,3.328512,0.000000,1.511658
LINE676,0.000000,-0.016949,18.016059,3.332575,0.000000,1.557238
LINE677,0.000000,3.048513,18.050677,3.332106,0.000000,4.672111
LINE678,54.724266,-0.837288,0.000000,0.184454,0.000000,4.632307
LINE679,73.166797,-0.835143,91.215020,3.332627,70.127103,1.248753
LINE680,0.000000,-0.169542,0.000000,-0.169542,0.000000,-1.411309
LINE681,0.000000,1.817569,18.179031,3.328526,0.000000,-1.487874
LINE682,0.000000,-0.019022,18.016059,3.332575,0.000000,1.565139
LINE683,0.000000,-0.545958,18.050677,3.332106,0.000000,4.492792
LINE684,54.724266,-0.837288,0.000000,0.133044,0.000000,4.588347
LINE685,73.166797,-0.835143,91.215020,3.332627,70.127103,1.248753
LINE686,0.000000,-0.092165,18.016059,3.332575,0.000000,1.579787
LINE687,0.000000,0.510212,18.050677,3.332106,0.000000,1.314057
LINE688,54.724266,-0.837288,0.000000,0.111977,0.000000,4.619245
LINE689,0.000000,3.243408,0.000000,3.221836,35.017977,1.249115
LINE690,73.166797,-0.835143,91.215020,3.332627,35.109131,1.248393
LINE691,0.000000,-0.095835,18.016059,3.332575,0.000000,1.584721
LINE692,54.724266,-0.837288,0.000000,0.133084,0.000000,4.564483
LINE693,0.000000,3.199557,0.000000,3.094525,17.509641,1.249124
LINE694,0.000000,-1.274021,0.000000,-1.274021,17.508336,1.249106
LINE695,0.000000,-0.049044,18.110146,3.331986,0.000000,1.493479
LINE696,73.166797,-0.835143,73.104878,3.332786,35.109131,1.248393
LINE697,0.000000,0.017178,18.016059,3.332575,0.000000,1.577809
LINE698,54.724266,-0.837288,0.000000,-0.013704,0.000000,4.538773
LINE699,0.000000,3.147227,0.000000,3.316190,17.509641,1.249124
LINE700,0.000000,3.244421,0.000000,0.053553,17.508336,1.249106
LINE701,0.000000,-0.971478,18.110146,3.331986,0.000000,4.623424
LINE702,73.166797,-0.835143,73.104878,3.332786,35.109131,1.248393
LINE703,0.000000,0.020656,18.016059,3.332575,0.000000,1.584212
LINE704,54.724266,-0.837288,0.000000,0.073317,0.000000,4.578856
LINE705,0.000000,3.158908,0.000000,3.826321,17.509641,1.249124
LINE706,73.166797,-0.835143,73.104878,3.332786,35.109131,1.248393
LINE707,0.000000,-0.050686,0.000000,0.739841,0.000000,-1.543180
LINE708,0.000000,0.026982,18.016059,3.332575,0.000000,1.586479
LINE709,54.724266,-0.837288,0.000000,0.039230,0.000000,4.591516
LINE710,0.000000,4.218297,0.000000,3.391138,17.509641,1.249124
LINE711,36.642072,-0.834007,73.104878,3.332786,35.109131,1.248393
LINE712,36.524772,-0.836283,0.000000,3.954298,0.000000,-1.476328
LINE713,0.000000,2.641695,0.000000,0.654975,0.000000,-1.370045
LINE714,0.000000,0.014750,18.016059,3.332575,0.000000,1.568377
LINE715,54.724266,-0.837288,0.000000,0.040224,0.000000,4.585145
LINE716,0.000000,3.510037,0.000000,2.821908,17.509641,1.249124
LINE717,36.642072,-0.834007,73.104878,3.332786,35.109131,1.248393
LINE718,36.524772,-0.836283,0.000000,4.481722,0.000000,-1.494281
LINE719,0.000000,2.490835,0.000000,0.729359,0.000000,4.707296
LINE720,0.000000,-0.020715,18.016059,3.332575,0.000000,1.590272
LINE721,54.724266,-0.837288,0.000000,0.040483,0.000000,4.579027
LINE722,0.000000,3.194629,0.000000,3.228896,17.509641,1.249124
LINE723,36.642072,-0.834007,36.656466,3.332856,35.109131,1.248393
LINE724,0.000000,-0.402339,36.448412,3.332715,0.000000,1.654830
LINE725,36.524772,-0.836283,0.000000,4.066903,0.000000,-1.321430
LINE726,0.000000,3.231422,0.000000,0.610289,0.000000,4.640992
LINE727,0.000000,0.131262,18.016059,3.332575,0.000000,1.640429
LINE728,54.724266,-0.837288,0.000000,-0.002595,0.000000,4.545927
LINE729,0.000000,3.164112,0.000000,2.523458,17.509641,1.249124
LINE730,36.642072,-0.834007,36.656466,3.332856,35.109131,1.248393
LINE731,0.000000,-0.411067,36.448412,3.332715,0.000000,1.650816
LINE732,36.524772,-0.836283,0.000000,3.784573,0.000000,1.408914
LINE733,0.000000,3.511786,0.000000,0.369344,0.000000,4.375585
LINE734,0.000000,0.092574,18.016059,3.332575,0.000000,1.871325
LINE735,54.724266,-0.837288,0.000000,0.030773,0.000000,4.578643
LINE736,0.000000,2.518746,0.000000,0.463309,17.509641,1.249124
LINE737,36.642072,-0.834007,36.656466,3.332856,35.109131,1.248393
LINE738,0.000000,-0.415094,36.448412,3.332715,0.000000,1.650980
LINE739,36.524772,-0.836283,0.000000,4.076037,0.000000,1.396499
LINE740,0.000000,3.464886,0.000000,0.366454,0.000000,4.369874
LINE741,0.000000,0.056946,18.016059,3.332575,0.000000,1.713571
LINE742,54.724266,-0.837288,0.000000,-0.036178,0.000000,4.583388
LINE743,0.000000,2.439657,0.000000,3.208343,17.509641,1.249124
LINE744,36.642072,-0.834007,36.656466,3.332856,35.109131,1.248393
LINE745,0.000000,-0.820471,18.225041,3.332726,0.000000,1.550196
LINE746,0.000000,-0.502697,18.223372,3.332703,0.000000,1.676284
LINE747,36.524772,-0.836283,0.000000,4.562427,0.000000,1.385893
LINE748,0.000000,4.014624,0.000000,0.840992,0.000000,4.405235
LINE749,0.000000,0.111474,18.016059,3.332575,0.000000,1.670050
LINE750,54.724266,-0.837288,0.000000,0.061803,0.000000,4.549853
LINE751,0.000000,2.900737,0.000000,4.058901,17.509641,1.249124
LINE752,36.642072,-0.834007,36.656466,3.332856,0.000000,1.506943
LINE753,0.000000,-0.205648,0.000000,3.852356,35.109131,1.248393
LINE754,0.000000,2.279981,18.225041,3.332726,0.000000,1.497129
LINE755,0.000000,-0.177637,18.223372,3.332703,0.000000,1.661287
LINE756,36.524772,-0.836283,0.000000,-1.215088,0.000000,1.136322
LINE757,0.000000,3.830755,0.000000,0.923451,0.000000,4.001311
LINE758,0.000000,-0.185357,18.016059,3.332575,0.000000,4.516321
LINE759,54.724266,-0.837288,0.000000,0.085070,0.000000,4.614890
LINE760,0.000000,1.476553,0.000000,4.674165,17.509641,1.249124
LINE761,36.642072,-0.834007,36.656466,3.332856,0.000000,1.524324
LINE762,0.000000,-0.209335,0.000000,3.852469,35.109131,1.248393
LINE763,0.000000,-0.563544,18.223372,3.332703,0.000000,1.640566
LINE764,36.524772,-0.836283,0.000000,-1.114348,0.000000,1.093112
LINE765,0.000000,3.468884,0.000000,0.878109,0.000000,4.321609
LINE766,0.000000,0.041806,18.016059,3.332575,0.000000,1.680487
LINE767,54.724266,-0.837288,0.000000,0.100082,0.000000,4.617947
LINE768,0.000000,-0.548290,0.000000,3.648273,17.509641,1.249124
LINE769,36.642072,-0.834007,36.656466,3.332856,0.000000,1.531120
LINE770,0.000000,-0.550665,0.000000,3.267196,17.555639,1.248408
LINE771,0.000000,-0.283150,0.000000,3.743105,17.553492,1.248378
LINE772,0.000000,-0.288410,18.223372,3.332703,0.000000,1.672077
LINE773,36.524772,-0.836283,0.000000,-1.059704,0.000000,1.228389
LINE774,0.000000,3.156144,0.000000,0.733442,0.000000,4.431053
LINE775,0.000000,-0.172427,18.016059,3.332575,0.000000,3.612824
LINE776,54.724266,-0.837288,0.000000,0.166134,0.000000,4.618101
LINE777,0.000000,-0.919506,0.000000,0.829694,17.509641,1.249124
LINE778,36.642072,-0.834007,36.656466,3.332856,0.000000,1.530934
LINE779,0.000000,3.763681,0.000000,0.348618,17.555639,1.248408
LINE780,0.000000,-0.190153,0.000000,3.699977,17.553492,1.248378
LINE781,0.000000,-0.261470,18.223372,3.332703,0.000000,1.991368
LINE782,36.524772,-0.836283,0.000000,4.457307,0.000000,1.335860
LINE783,0.000000,3.192648,0.000000,0.945616,0.000000,4.154500
LINE784,0.000000,1.398305,18.016059,3.332575,0.000000,4.632939
LINE785,54.724266,-0.837288,0.000000,0.105661,0.000000,4.593657
LINE786,36.642072,-0.834007,36.656466,3.332856,0.000000,1.532070
LINE787,0.000000,-0.062298,0.000000,3.674447,17.553492,1.248378
LINE788,0.000000,-0.720213,18.223372,3.332703,0.000000,1.598860
LINE789,36.524772,-0.836283,0.000000,4.231195,0.000000,1.410248
LINE790,0.000000,3.565791,0.000000,0.785552,0.000000,2.983197
LINE791,36.482815,-0.837288,0.000000,0.107696,0.000000,4.606126
LINE792,18.241451,-0.837287,0.000000,1.914201,0.000000,1.848518
LINE793,36.642072,-0.834007,36.656466,3.332856,0.000000,1.536578
LINE794,0.000000,0.601962,0.000000,3.534116,17.553492,1.248378
LINE795,0.000000,2.363185,18.223372,3.332703,0.000000,1.577873
LINE796,36.524772,-0.836283,0.000000,-1.152324,0.000000,1.259504
LINE797,0.000000,3.025146,0.000000,1.424269,0.000000,4.329307
LINE798,36.482815,-0.837288,0.000000,0.110309,0.000000,4.502009
LINE799,18.241451,-0.837287,0.000000,2.992049,0.000000,1.564819
LINE800,36.642072,-0.834007,0.000000,1.800577,0.000000,1.548536
LINE801,0.000000,2.674489,36.656466,3.332856,0.000000,4.684329
LINE802,0.000000,0.048540,0.000000,3.656597,17.553492,1.248378
LINE803,0.000000,-0.080491,18.223372,3.332703,0.000000,-0.236197
LINE804,36.524772,-0.836283,0.000000,-0.669087,0.000000,1.500034
LINE805,0.000000,3.382499,0.000000,0.333840,0.000000,-1.557082
LINE806,36.482815,-0.837288,0.000000,0.117395,0.000000,4.590620
LINE807,18.241451,-0.837287,0.000000,2.897449,0.000000,1.583377
LINE808,36.642072,-0.834007,0.000000,0.722604,0.000000,1.544905
LINE809,0.000000,2.540736,36.656466,3.332856,0.000000,-1.516809
LINE810,0.000000,2.427718,0.000000,-0.475340,0.000000,3.332897
LINE811,0.000000,1.178296,0.000000,3.644699,17.553492,1.248378
LINE812,0.000000,-0.227293,18.223372,3.332703,0.000000,-1.569136
LINE813,36.524772,-0.836283,0.000000,-0.201186,0.000000,1.518626
LINE814,0.000000,0.241489,0.000000,1.517159,0.000000,1.331527
LINE815,36.482815,-0.837288,0.000000,-0.008017,0.000000,4.564580
LINE816,18.241451,-0.837287,0.000000,2.406136,0.000000,1.530400
LINE817,36.642072,-0.834007,0.000000,0.469373,0.000000,1.524903
LINE818,0.000000,2.573309,36.656466,3.332856,0.000000,-1.496176
LINE819,0.000000,4.652987,0.000000,0.343759,0.000000,1.324567
LINE820,0.000000,0.942425,0.000000,3.753160,17.553492,1.248378
LINE821,36.524772,-0.836283,0.000000,-0.186876,0.000000,1.444628
LINE822,0.000000,0.060389,0.000000,2.571310,0.000000,-1.041550
LINE823,36.482815,-0.837288,0.000000,-0.206897,0.000000,4.660396
LINE824,36.642072,-0.834007,0.000000,0.779289,0.000000,1.511573
LINE825,0.000000,2.611444,36.656466,3.332856,0.000000,4.660910
LINE826,0.000000,1.730891,0.000000,1.730891,0.000000,-0.000382
LINE827,0.000000,-1.124520,0.000000,-1.124520,17.553492,1.248378
LINE828,36.524772,-0.836283,0.000000,-0.242678,0.000000,1.510466
LINE829,0.000000,3.082735,0.000000,0.481643,0.000000,1.360367
LINE830,36.482815,-0.837288,0.000000,-0.251052,0.000000,4.663426
LINE831,36.642072,-0.834007,0.000000,0.580483,0.000000,1.530022
LINE832,0.000000,2.592318,36.656466,3.332856,0.000000,4.669608
LINE833,0.000000,3.789381,0.000000,2.839659,0.000000,-1.280317
LINE834,0.000000,1.784374,0.000000,2.595200,17.553492,1.248378
LINE835,36.524772,-0.836283,0.000000,-0.400772,0.000000,1.484302
LINE836,36.482815,-0.837288,0.000000,-0.796943,0.000000,1.598122
LINE837,36.642072,-0.834007,0.000000,0.623167,0.000000,1.476212
LINE838,0.000000,2.629089,36.656466,3.332856,0.000000,4.662485
LINE839,0.000000,-0.400619,0.000000,3.271815,0.000000,2.256647
LINE840,36.524772,-0.836283,0.000000,-0.453535,0.000000,1.510777
LINE841,36.482815,-0.837288,0.000000,-1.468950,0.000000,1.574978
LINE842,36.642072,-0.834007,0.000000,0.607150,0.000000,1.438003
LINE843,0.000000,2.441325,36.656466,3.332856,0.000000,4.674438
LINE844,0.000000,3.068713,0.000000,-0.889003,0.000000,4.466490
LINE845,0.000000,2.375341,0.000000,-1.200655,0.000000,-0.771039
LINE846,36.524772,-0.836283,0.000000,-0.533260,0.000000,1.529185
LINE847,36.482815,-0.837288,0.000000,2.881819,0.000000,1.585317
LINE848,36.642072,-0.834007,0.000000,0.756894,0.000000,1.388731
LINE849,0.000000,2.430573,36.656466,3.332856,0.000000,4.696907
LINE850,0.000000,3.198563,0.000000,-1.146812,0.000000,4.328723
LINE851,0.000000,1.522294,0.000000,1.803174,0.000000,0.927933
LINE852,36.524772,-0.836283,0.000000,-0.796401,0.000000,1.677564
LINE853,36.482815,-0.837288,0.000000,0.529765,0.000000,4.653922
LINE854,36.642072,-0.834007,0.000000,0.641423,0.000000,1.392004
LINE855,0.000000,2.533655,36.656466,3.332856,0.000000,-1.543289
LINE856,0.000000,3.337417,0.000000,-0.946200,0.000000,4.319965
LINE857,0.000000,1.699731,0.000000,3.757557,0.000000,-0.465458
LINE858,36.524772,-0.836283,0.000000,4.473788,0.000000,1.599823
LINE859,18.237567,-0.837340,0.000000,1.199835,0.000000,4.568888
LINE860,18.245248,-0.837236,0.000000,0.084434,0.000000,-1.547349
LINE861,36.642072,-0.834007,0.000000,0.667513,0.000000,1.376914
LINE862,0.000000,2.515475,36.656466,3.332856,0.000000,-1.531303
LINE863,0.000000,3.585210,0.000000,-0.651287,0.000000,4.449999
LINE864,0.000000,2.321950,0.000000,3.277697,0.000000,-0.732031
LINE865,36.524772,-0.836283,0.000000,4.669402,0.000000,3.246130
LINE866,36.642072,-0.834007,0.000000,0.656427,0.000000,1.339491
LINE867,0.000000,2.288676,36.656466,3.332856,0.000000,4.574673
LINE868,0.000000,2.522652,0.000000,1.296076,0.000000,1.527092
LINE869,0.000000,1.569514,0.000000,4.504885,0.000000,0.799893
LINE870,36.524772,-0.836283,0.000000,3.477591,0.000000,4.685375
LINE871,36.642072,-0.834007,0.000000,0.681167,0.000000,1.307196
LINE872,0.000000,0.915275,18.329868,3.332879,0.000000,1.596755
LINE873,0.000000,3.537722,18.326598,3.332834,0.000000,-1.490953
LINE874,0.000000,2.276227,0.000000,3.739737,0.000000,1.643443
LINE875,0.000000,-0.458529,0.000000,2.816197,0.000000,2.150357
LINE876,36.524772,-0.836283,0.000000,0.229340,0.000000,4.615297
LINE877,36.642072,-0.834007,0.000000,0.669719,0.000000,1.275143
LINE878,0.000000,-0.067519,18.329868,3.332879,0.000000,1.573475
LINE879,0.000000,0.000000,18.326598,3.332834,0.000000,-0.067519
LINE880,0.000000,2.878067,0.000000,4.551066,0.000000,1.920154
LINE881,0.000000,1.837758,0.000000,-0.254140,0.000000,2.261819
LINE882,36.524772,-0.836283,0.000000,-0.622413,0.000000,1.492933
LINE883,36.642072,-0.834007,0.000000,0.698389,0.000000,1.228358
LINE884,0.000000,-0.067519,18.329868,3.332879,0.000000,1.589005
LINE885,0.000000,0.000000,18.326598,3.332834,0.000000,-0.067519
LINE886,36.524772,-0.836283,0.000000,-0.189470,0.000000,4.392759
LINE887,18.321565,-0.833988,0.000000,0.635260,0.000000,0.746124
LINE888,18.320507,-0.834027,0.000000,3.834303,0.000000,1.489601
LINE889,0.000000,-0.067519,18.329868,3.332879,0.000000,-1.483318
LINE890,36.524772,-0.836283,0.000000,3.774392,0.000000,1.495036
LINE891,18.321565,-0.833988,0.000000,0.637695,0.000000,1.139012
LINE892,18.320507,-0.834027,0.000000,3.188034,0.000000,1.558944
LINE893,0.000000,0.396129,18.329868,3.332879,0.000000,-1.556467
LINE894,18.267676,-0.836211,0.000000,3.914287,0.000000,4.676499
LINE895,18.257097,-0.836354,0.000000,0.027972,0.000000,0.633301
LINE896,18.321565,-0.833988,0.000000,0.640041,0.000000,0.541778
LINE897,18.320507,-0.834027,0.000000,0.230792,0.000000,4.506665
LINE898,0.000000,0.000000,18.329868,3.332879,0.000000,-1.544838
LINE899,18.267676,-0.836211,0.000000,1.820669,0.000000,4.587640
LINE900,18.321565,-0.833988,0.000000,0.765326,0.000000,1.268573
LINE901,18.321565,-0.833988,0.000000,0.558947,0.000000,-1.418721
LINE902,18.321565,-0.833988,0.000000,0.165900,0.000000,1.583806
LINE903,18.321565,-0.833988,0.000000,-0.250752,0.000000,4.421471
LINE904,18.321565,-0.833988,0.000000,-0.551554,0.000000,1.594130
LINE905,18.321565,-0.833988,0.000000,4.660352,0.000000,-1.551352
